<?xml version="1.0" encoding="UTF-8"?>
<FrameLayout xmlns:android="http://schemas.android.com/apk/res/android"
	android:id="@+id/framelayout"
	android:layout_width="fill_parent"
	android:layout_height="wrap_content"
	android:descendantFocusability="blocksDescendants" >

	<net.cstong.android.ui.photo.MyImageView
		android:id="@+id/iv_photo"
		android:layout_width="fill_parent"
		android:layout_height="100dip"
		android:background="@drawable/image_loading"
		android:clickable="true"
		android:scaleType="centerCrop" />

	<CheckBox
		android:id="@+id/child_checkbox"
		android:layout_width="40dip"
		android:layout_height="40dip"
		android:layout_gravity="right"
		android:layout_margin="5dip"
		android:button="@drawable/photo_select_icon"
		android:scaleType="fitXY" />

</FrameLayout>